20
input_1
S	-0.227	-1.72	-0.634
O	-2.22974	0.0917	2.443
O	-1.055871	2.028982	2.419
N	1.256031	0.524901	2.109
C	0	0	0
C	0	0	1.557
C	-1.119	0.859	-0.611
C	1.358	0.483	-0.545
C	-1.120763	0.830366	2.179
H	-0.101591	-1.027029	1.931
H	-1.032	1.905	-0.293
H	-2.115	0.51	-0.317
H	-1.078	0.86	-1.707
H	1.413	0.399	-1.638
H	1.532	1.539	-0.31
H	2.19	-0.091	-0.121
H	2.03655	-0.059566	1.813
H	1.234291	0.458211	3.127
H	-0.173	-1.421	-1.94
H	-2.944217	0.634213	2.839
20
input_2
S	-0.227	-1.72	-0.634
O	-2.231001	0.052771	2.443
O	-1.091121	2.010245	2.419
N	1.246678	0.546742	2.109
C	0	0	0
C	0	0	1.557
C	-1.119	0.859	-0.611
C	1.358	0.483	-0.545
C	-1.135084	0.81068	2.179
H	-0.083652	-1.028646	1.931
H	-1.032	1.905	-0.293
H	-2.115	0.51	-0.317
H	-1.078	0.86	-1.707
H	1.413	0.399	-1.638
H	1.532	1.539	-0.31
H	2.19	-0.091	-0.121
H	2.037279	-0.024015	1.813
H	1.226106	0.479683	3.127
H	-0.173	-1.421	-1.94
H	-2.954837	0.582733	2.839
20
input_3
S	-0.227	-1.72	-0.634
O	-2.231582	0.013827	2.443
O	-1.126039	1.990896	2.419
N	1.236947	0.568416	2.109
C	0	0	0
C	0	0	1.557
C	-1.119	0.859	-0.611
C	1.358	0.483	-0.545
C	-1.149059	0.790747	2.179
H	-0.065687	-1.029949	1.931
H	-1.032	1.905	-0.293
H	-2.115	0.51	-0.317
H	-1.078	0.86	-1.707
H	1.413	0.399	-1.638
H	1.532	1.539	-0.31
H	2.19	-0.091	-0.121
H	2.037388	0.011544	1.813
H	1.217548	0.501008	3.127
H	-0.173	-1.421	-1.94
H	-2.964557	0.531075	2.839
20
input_4
S	-0.227	-1.72	-0.634
O	-2.231483	-0.025122	2.443
O	-1.160613	1.970941	2.419
N	1.226838	0.589917	2.109
C	0	0	0
C	0	0	1.557
C	-1.119	0.859	-0.611
C	1.358	0.483	-0.545
C	-1.162685	0.770572	2.179
H	-0.047702	-1.030939	1.931
H	-1.032	1.905	-0.293
H	-2.115	0.51	-0.317
H	-1.078	0.86	-1.707
H	1.413	0.399	-1.638
H	1.532	1.539	-0.31
H	2.19	-0.091	-0.121
H	2.036876	0.0471	1.813
H	1.208619	0.522181	3.127
H	-0.173	-1.421	-1.94
H	-2.973374	0.479255	2.839
20
input_5
S	-0.227	-1.72	-0.634
O	-2.230705	-0.064063	2.443
O	-1.194834	1.950385	2.419
N	1.216356	0.611238	2.109
C	0	0	0
C	0	0	1.557
C	-1.119	0.859	-0.611
C	1.358	0.483	-0.545
C	-1.175956	0.750163	2.179
H	-0.029702	-1.031614	1.931
H	-1.032	1.905	-0.293
H	-2.115	0.51	-0.317
H	-1.078	0.86	-1.707
H	1.413	0.399	-1.638
H	1.532	1.539	-0.31
H	2.19	-0.091	-0.121
H	2.035744	0.082641	1.813
H	1.199321	0.543195	3.127
H	-0.173	-1.421	-1.94
H	-2.981285	0.42729	2.839
20
input_6
S	-0.227	-1.72	-0.634
O	-2.229247	-0.102984	2.443
O	-1.228691	1.929235	2.419
N	1.205503	0.632374	2.109
C	0	0	0
C	0	0	1.557
C	-1.119	0.859	-0.611
C	1.358	0.483	-0.545
C	-1.188869	0.729526	2.179
H	-0.011693	-1.031976	1.931
H	-1.032	1.905	-0.293
H	-2.115	0.51	-0.317
H	-1.078	0.86	-1.707
H	1.413	0.399	-1.638
H	1.532	1.539	-0.31
H	2.19	-0.091	-0.121
H	2.033992	0.118157	1.813
H	1.189659	0.564043	3.127
H	-0.173	-1.421	-1.94
H	-2.988289	0.375194	2.839
20
input_7
S	-0.227	-1.72	-0.634
O	-2.22711	-0.141874	2.443
O	-1.262174	1.907498	2.419
N	1.194283	0.653316	2.109
C	0	0	0
C	0	0	1.557
C	-1.119	0.859	-0.611
C	1.358	0.483	-0.545
C	-1.20142	0.708666	2.179
H	0.006319	-1.032022	1.931
H	-1.032	1.905	-0.293
H	-2.115	0.51	-0.317
H	-1.078	0.86	-1.707
H	1.413	0.399	-1.638
H	1.532	1.539	-0.31
H	2.19	-0.091	-0.121
H	2.03162	0.153637	1.813
H	1.179633	0.58472	3.127
H	-0.173	-1.421	-1.94
H	-2.994382	0.322984	2.839
20
input_8
S	-0.227	-1.72	-0.634
O	-2.224295	-0.180721	2.443
O	-1.295272	1.885179	2.419
N	1.182699	0.67406	2.109
C	0	0	0
C	0	0	1.557
C	-1.119	0.859	-0.611
C	1.358	0.483	-0.545
C	-1.213605	0.68759	2.179
H	0.024329	-1.031755	1.931
H	-1.032	1.905	-0.293
H	-2.115	0.51	-0.317
H	-1.078	0.86	-1.707
H	1.413	0.399	-1.638
H	1.532	1.539	-0.31
H	2.19	-0.091	-0.121
H	2.028629	0.189071	1.813
H	1.169249	0.605218	3.127
H	-0.173	-1.421	-1.94
H	-2.999562	0.270676	2.839
20
input_9
S	-0.227	-1.72	-0.634
O	-2.220802	-0.219513	2.443
O	-1.327975	1.862287	2.419
N	1.170755	0.694598	2.109
C	0	0	0
C	0	0	1.557
C	-1.119	0.859	-0.611
C	1.358	0.483	-0.545
C	-1.22542	0.666305	2.179
H	0.042332	-1.031173	1.931
H	-1.032	1.905	-0.293
H	-2.115	0.51	-0.317
H	-1.078	0.86	-1.707
H	1.413	0.399	-1.638
H	1.532	1.539	-0.31
H	2.19	-0.091	-0.121
H	2.02502	0.224446	1.813
H	1.158508	0.625532	3.127
H	-0.173	-1.421	-1.94
H	-3.003829	0.218285	2.839
20
input_10
S	-0.227	-1.72	-0.634
O	-2.216633	-0.258238	2.443
O	-1.360275	1.838827	2.419
N	1.158454	0.714925	2.109
C	0	0	0
C	0	0	1.557
C	-1.119	0.859	-0.611
C	1.358	0.483	-0.545
C	-1.236862	0.644817	2.179
H	0.060322	-1.030277	1.931
H	-1.032	1.905	-0.293
H	-2.115	0.51	-0.317
H	-1.078	0.86	-1.707
H	1.413	0.399	-1.638
H	1.532	1.539	-0.31
H	2.19	-0.091	-0.121
H	2.020795	0.259754	1.813
H	1.147415	0.645655	3.127
H	-0.173	-1.421	-1.94
H	-3.007182	0.165828	2.839
20
input_11
S	-0.227	-1.72	-0.634
O	-2.211789	-0.296884	2.443
O	-1.392159	1.814807	2.419
N	1.145801	0.735034	2.109
C	0	0	0
C	0	0	1.557
C	-1.119	0.859	-0.611
C	1.358	0.483	-0.545
C	-1.247927	0.623133	2.179
H	0.078294	-1.029068	1.931
H	-1.032	1.905	-0.293
H	-2.115	0.51	-0.317
H	-1.078	0.86	-1.707
H	1.413	0.399	-1.638
H	1.532	1.539	-0.31
H	2.19	-0.091	-0.121
H	2.015954	0.294982	1.813
H	1.135972	0.665582	3.127
H	-0.173	-1.421	-1.94
H	-3.009618	0.11332	2.839
20
input_12
S	-0.227	-1.72	-0.634
O	-2.20627	-0.33544	2.443
O	-1.42362	1.790234	2.419
N	1.132798	0.754919	2.109
C	0	0	0
C	0	0	1.557
C	-1.119	0.859	-0.611
C	1.358	0.483	-0.545
C	-1.258612	0.601259	2.179
H	0.096242	-1.027545	1.931
H	-1.032	1.905	-0.293
H	-2.115	0.51	-0.317
H	-1.078	0.86	-1.707
H	1.413	0.399	-1.638
H	1.532	1.539	-0.31
H	2.19	-0.091	-0.121
H	2.010498	0.33012	1.813
H	1.124183	0.685306	3.127
H	-0.173	-1.421	-1.94
H	-3.011137	0.060778	2.839
20
input_13
S	-0.227	-1.72	-0.634
O	-2.20008	-0.373893	2.443
O	-1.454647	1.765115	2.419
N	1.11945	0.774574	2.109
C	0	0	0
C	0	0	1.557
C	-1.119	0.859	-0.611
C	1.358	0.483	-0.545
C	-1.268914	0.579201	2.179
H	0.11416	-1.025708	1.931
H	-1.032	1.905	-0.293
H	-2.115	0.51	-0.317
H	-1.078	0.86	-1.707
H	1.413	0.399	-1.638
H	1.532	1.539	-0.31
H	2.19	-0.091	-0.121
H	2.004431	0.365158	1.813
H	1.112051	0.704822	3.127
H	-0.173	-1.421	-1.94
H	-3.011739	0.008217	2.839
20
input_14
S	-0.227	-1.72	-0.634
O	-2.19322	-0.412233	2.443
O	-1.485231	1.739459	2.419
N	1.105762	0.793993	2.109
C	0	0	0
C	0	0	1.557
C	-1.119	0.859	-0.611
C	1.358	0.483	-0.545
C	-1.278829	0.556967	2.179
H	0.132044	-1.02356	1.931
H	-1.032	1.905	-0.293
H	-2.115	0.51	-0.317
H	-1.078	0.86	-1.707
H	1.413	0.399	-1.638
H	1.532	1.539	-0.31
H	2.19	-0.091	-0.121
H	1.997753	0.400084	1.813
H	1.099581	0.724122	3.127
H	-0.173	-1.421	-1.94
H	-3.011424	-0.044347	2.839
20
input_15
S	-0.227	-1.72	-0.634
O	-2.185691	-0.450447	2.443
O	-1.515363	1.713274	2.419
N	1.091736	0.81317	2.109
C	0	0	0
C	0	0	1.557
C	-1.119	0.859	-0.611
C	1.358	0.483	-0.545
C	-1.288355	0.534564	2.179
H	0.149887	-1.021099	1.931
H	-1.032	1.905	-0.293
H	-2.115	0.51	-0.317
H	-1.078	0.86	-1.707
H	1.413	0.399	-1.638
H	1.532	1.539	-0.31
H	2.19	-0.091	-0.121
H	1.990466	0.434889	1.813
H	1.086776	0.743202	3.127
H	-0.173	-1.421	-1.94
H	-3.010191	-0.096896	2.839
20
input_16
S	-0.227	-1.72	-0.634
O	-2.177497	-0.488524	2.443
O	-1.545033	1.686566	2.419
N	1.077378	0.8321	2.109
C	0	0	0
C	0	0	1.557
C	-1.119	0.859	-0.611
C	1.358	0.483	-0.545
C	-1.297488	0.511998	2.179
H	0.167685	-1.018328	1.931
H	-1.032	1.905	-0.293
H	-2.115	0.51	-0.317
H	-1.078	0.86	-1.707
H	1.413	0.399	-1.638
H	1.532	1.539	-0.31
H	2.19	-0.091	-0.121
H	1.982573	0.469561	1.813
H	1.07364	0.762056	3.127
H	-0.173	-1.421	-1.94
H	-3.008042	-0.149417	2.839
20
input_17
S	-0.227	-1.72	-0.634
O	-2.168639	-0.526452	2.443
O	-1.574232	1.659345	2.419
N	1.062692	0.850776	2.109
C	0	0	0
C	0	0	1.557
C	-1.119	0.859	-0.611
C	1.358	0.483	-0.545
C	-1.306226	0.489275	2.179
H	0.185432	-1.015246	1.931
H	-1.032	1.905	-0.293
H	-2.115	0.51	-0.317
H	-1.078	0.86	-1.707
H	1.413	0.399	-1.638
H	1.532	1.539	-0.31
H	2.19	-0.091	-0.121
H	1.974076	0.50409	1.813
H	1.060177	0.780678	3.127
H	-0.173	-1.421	-1.94
H	-3.004976	-0.201892	2.839
20
input_18
S	-0.227	-1.72	-0.634
O	-2.159121	-0.56422	2.443
O	-1.602952	1.631618	2.419
N	1.047682	0.869193	2.109
C	0	0	0
C	0	0	1.557
C	-1.119	0.859	-0.611
C	1.358	0.483	-0.545
C	-1.314566	0.466404	2.179
H	0.203122	-1.011856	1.931
H	-1.032	1.905	-0.293
H	-2.115	0.51	-0.317
H	-1.078	0.86	-1.707
H	1.413	0.399	-1.638
H	1.532	1.539	-0.31
H	2.19	-0.091	-0.121
H	1.964978	0.538466	1.813
H	1.04639	0.799061	3.127
H	-0.173	-1.421	-1.94
H	-3.000995	-0.254305	2.839
20
input_19
S	-0.227	-1.72	-0.634
O	-2.148945	-0.601816	2.443
O	-1.631183	1.603394	2.419
N	1.032353	0.887345	2.109
C	0	0	0
C	0	0	1.557
C	-1.119	0.859	-0.611
C	1.358	0.483	-0.545
C	-1.322506	0.443391	2.179
H	0.22075	-1.008156	1.931
H	-1.032	1.905	-0.293
H	-2.115	0.51	-0.317
H	-1.078	0.86	-1.707
H	1.413	0.399	-1.638
H	1.532	1.539	-0.31
H	2.19	-0.091	-0.121
H	1.955281	0.572677	1.813
H	1.032286	0.817202	3.127
H	-0.173	-1.421	-1.94
H	-2.996099	-0.306641	2.839
20
input_20
S	-0.227	-1.72	-0.634
O	-2.138115	-0.639229	2.443
O	-1.658918	1.574682	2.419
N	1.016709	0.905227	2.109
C	0	0	0
C	0	0	1.557
C	-1.119	0.859	-0.611
C	1.358	0.483	-0.545
C	-1.330043	0.420242	2.179
H	0.238312	-1.00415	1.931
H	-1.032	1.905	-0.293
H	-2.115	0.51	-0.317
H	-1.078	0.86	-1.707
H	1.413	0.399	-1.638
H	1.532	1.539	-0.31
H	2.19	-0.091	-0.121
H	1.944989	0.606715	1.813
H	1.017866	0.835093	3.127
H	-0.173	-1.421	-1.94
H	-2.990291	-0.358883	2.839
20
input_21
S	-0.227	-1.72	-0.634
O	-2.126633	-0.676447	2.443
O	-1.686147	1.54549	2.419
N	1.000756	0.922833	2.109
C	0	0	0
C	0	0	1.557
C	-1.119	0.859	-0.611
C	1.358	0.483	-0.545
C	-1.337174	0.396966	2.179
H	0.2558	-0.999838	1.931
H	-1.032	1.905	-0.293
H	-2.115	0.51	-0.317
H	-1.078	0.86	-1.707
H	1.413	0.399	-1.638
H	1.532	1.539	-0.31
H	2.19	-0.091	-0.121
H	1.934104	0.640567	1.813
H	1.003137	0.85273	3.127
H	-0.173	-1.421	-1.94
H	-2.983573	-0.411016	2.839
20
input_22
S	-0.227	-1.72	-0.634
O	-2.114504	-0.713458	2.443
O	-1.712863	1.515827	2.419
N	0.984498	0.940158	2.109
C	0	0	0
C	0	0	1.557
C	-1.119	0.859	-0.611
C	1.358	0.483	-0.545
C	-1.343899	0.373568	2.179
H	0.273211	-0.995222	1.931
H	-1.032	1.905	-0.293
H	-2.115	0.51	-0.317
H	-1.078	0.86	-1.707
H	1.413	0.399	-1.638
H	1.532	1.539	-0.31
H	2.19	-0.091	-0.121
H	1.92263	0.674224	1.813
H	0.988102	0.870107	3.127
H	-0.173	-1.421	-1.94
H	-2.975945	-0.463024	2.839
20
input_23
S	-0.227	-1.72	-0.634
O	-2.10173	-0.750253	2.443
O	-1.739057	1.485703	2.419
N	0.96794	0.957197	2.109
C	0	0	0
C	0	0	1.557
C	-1.119	0.859	-0.611
C	1.358	0.483	-0.545
C	-1.350214	0.350057	2.179
H	0.290538	-0.990302	1.931
H	-1.032	1.905	-0.293
H	-2.115	0.51	-0.317
H	-1.078	0.86	-1.707
H	1.413	0.399	-1.638
H	1.532	1.539	-0.31
H	2.19	-0.091	-0.121
H	1.91057	0.707676	1.813
H	0.972766	0.88722	3.127
H	-0.173	-1.421	-1.94
H	-2.967411	-0.514891	2.839
20
input_24
S	-0.227	-1.72	-0.634
O	-2.088316	-0.786819	2.443
O	-1.764721	1.455126	2.419
N	0.951087	0.973944	2.109
C	0	0	0
C	0	0	1.557
C	-1.119	0.859	-0.611
C	1.358	0.483	-0.545
C	-1.356117	0.32644	2.179
H	0.307777	-0.98508	1.931
H	-1.032	1.905	-0.293
H	-2.115	0.51	-0.317
H	-1.078	0.86	-1.707
H	1.413	0.399	-1.638
H	1.532	1.539	-0.31
H	2.19	-0.091	-0.121
H	1.897928	0.740912	1.813
H	0.957134	0.904062	3.127
H	-0.173	-1.421	-1.94
H	-2.957973	-0.566601	2.839
20
input_25
S	-0.227	-1.72	-0.634
O	-2.074266	-0.823145	2.443
O	-1.789848	1.424105	2.419
N	0.933945	0.990394	2.109
C	0	0	0
C	0	0	1.557
C	-1.119	0.859	-0.611
C	1.358	0.483	-0.545
C	-1.361608	0.302722	2.179
H	0.324922	-0.979559	1.931
H	-1.032	1.905	-0.293
H	-2.115	0.51	-0.317
H	-1.078	0.86	-1.707
H	1.413	0.399	-1.638
H	1.532	1.539	-0.31
H	2.19	-0.091	-0.121
H	1.884709	0.773923	1.813
H	0.94121	0.920628	3.127
H	-0.173	-1.421	-1.94
H	-2.947634	-0.618139	2.839
20
input_26
S	-0.227	-1.72	-0.634
O	-2.059585	-0.859221	2.443
O	-1.814429	1.392651	2.419
N	0.916518	1.006543	2.109
C	0	0	0
C	0	0	1.557
C	-1.119	0.859	-0.611
C	1.358	0.483	-0.545
C	-1.366684	0.278913	2.179
H	0.341968	-0.973739	1.931
H	-1.032	1.905	-0.293
H	-2.115	0.51	-0.317
H	-1.078	0.86	-1.707
H	1.413	0.399	-1.638
H	1.532	1.539	-0.31
H	2.19	-0.091	-0.121
H	1.870915	0.806698	1.813
H	0.924999	0.936914	3.127
H	-0.173	-1.421	-1.94
H	-2.936397	-0.669488	2.839
20
input_27
S	-0.227	-1.72	-0.634
O	-2.044275	-0.895035	2.443
O	-1.838458	1.360773	2.419
N	0.898811	1.022385	2.109
C	0	0	0
C	0	0	1.557
C	-1.119	0.859	-0.611
C	1.358	0.483	-0.545
C	-1.371343	0.255018	2.179
H	0.35891	-0.967623	1.931
H	-1.032	1.905	-0.293
H	-2.115	0.51	-0.317
H	-1.078	0.86	-1.707
H	1.413	0.399	-1.638
H	1.532	1.539	-0.31
H	2.19	-0.091	-0.121
H	1.856551	0.839227	1.813
H	0.908507	0.952915	3.127
H	-0.173	-1.421	-1.94
H	-2.924265	-0.720633	2.839
20
input_28
S	-0.227	-1.72	-0.634
O	-2.028344	-0.930576	2.443
O	-1.861927	1.32848	2.419
N	0.880831	1.037916	2.109
C	0	0	0
C	0	0	1.557
C	-1.119	0.859	-0.611
C	1.358	0.483	-0.545
C	-1.375585	0.231046	2.179
H	0.375743	-0.961211	1.931
H	-1.032	1.905	-0.293
H	-2.115	0.51	-0.317
H	-1.078	0.86	-1.707
H	1.413	0.399	-1.638
H	1.532	1.539	-0.31
H	2.19	-0.091	-0.121
H	1.841622	0.8715	1.813
H	0.891738	0.968626	3.127
H	-0.173	-1.421	-1.94
H	-2.911243	-0.771559	2.839
20
input_29
S	-0.227	-1.72	-0.634
O	-2.011794	-0.965834	2.443
O	-1.884828	1.295783	2.419
N	0.862583	1.05313	2.109
C	0	0	0
C	0	0	1.557
C	-1.119	0.859	-0.611
C	1.358	0.483	-0.545
C	-1.379408	0.207004	2.179
H	0.392461	-0.954507	1.931
H	-1.032	1.905	-0.293
H	-2.115	0.51	-0.317
H	-1.078	0.86	-1.707
H	1.413	0.399	-1.638
H	1.532	1.539	-0.31
H	2.19	-0.091	-0.121
H	1.826131	0.903508	1.813
H	0.874697	0.984041	3.127
H	-0.173	-1.421	-1.94
H	-2.897334	-0.822249	2.839
20
input_30
S	-0.227	-1.72	-0.634
O	-1.994631	-1.000797	2.443
O	-1.907156	1.262691	2.419
N	0.844072	1.068024	2.109
C	0	0	0
C	0	0	1.557
C	-1.119	0.859	-0.611
C	1.358	0.483	-0.545
C	-1.382811	0.182898	2.179
H	0.40906	-0.947513	1.931
H	-1.032	1.905	-0.293
H	-2.115	0.51	-0.317
H	-1.078	0.86	-1.707
H	1.413	0.399	-1.638
H	1.532	1.539	-0.31
H	2.19	-0.091	-0.121
H	1.810085	0.935241	1.813
H	0.85739	0.999157	3.127
H	-0.173	-1.421	-1.94
H	-2.882543	-0.87269	2.839
20
input_31
S	-0.227	-1.72	-0.634
O	-1.976861	-1.035456	2.443
O	-1.928902	1.229214	2.419
N	0.825304	1.082593	2.109
C	0	0	0
C	0	0	1.557
C	-1.119	0.859	-0.611
C	1.358	0.483	-0.545
C	-1.385792	0.158737	2.179
H	0.425534	-0.940229	1.931
H	-1.032	1.905	-0.293
H	-2.115	0.51	-0.317
H	-1.078	0.86	-1.707
H	1.413	0.399	-1.638
H	1.532	1.539	-0.31
H	2.19	-0.091	-0.121
H	1.793487	0.966689	1.813
H	0.839822	1.013968	3.127
H	-0.173	-1.421	-1.94
H	-2.866873	-0.922864	2.839
20
input_32
S	-0.227	-1.72	-0.634
O	-1.958489	-1.069799	2.443
O	-1.950061	1.195363	2.419
N	0.806284	1.096831	2.109
C	0	0	0
C	0	0	1.557
C	-1.119	0.859	-0.611
C	1.358	0.483	-0.545
C	-1.388351	0.134528	2.179
H	0.441878	-0.932659	1.931
H	-1.032	1.905	-0.293
H	-2.115	0.51	-0.317
H	-1.078	0.86	-1.707
H	1.413	0.399	-1.638
H	1.532	1.539	-0.31
H	2.19	-0.091	-0.121
H	1.776343	0.997842	1.813
H	0.821998	1.028471	3.127
H	-0.173	-1.421	-1.94
H	-2.85033	-0.972757	2.839
20
input_33
S	-0.227	-1.72	-0.634
O	-1.93952	-1.103816	2.443
O	-1.970626	1.161147	2.419
N	0.787019	1.110736	2.109
C	0	0	0
C	0	0	1.557
C	-1.119	0.859	-0.611
C	1.358	0.483	-0.545
C	-1.390488	0.110277	2.179
H	0.458088	-0.924806	1.931
H	-1.032	1.905	-0.293
H	-2.115	0.51	-0.317
H	-1.078	0.86	-1.707
H	1.413	0.399	-1.638
H	1.532	1.539	-0.31
H	2.19	-0.091	-0.121
H	1.758658	1.028692	1.813
H	0.803923	1.04266	3.127
H	-0.173	-1.421	-1.94
H	-2.832919	-1.022354	2.839
20
input_34
S	-0.227	-1.72	-0.634
O	-1.91996	-1.137498	2.443
O	-1.990591	1.126578	2.419
N	0.767514	1.124302	2.109
C	0	0	0
C	0	0	1.557
C	-1.119	0.859	-0.611
C	1.358	0.483	-0.545
C	-1.392201	0.085993	2.179
H	0.474159	-0.91667	1.931
H	-1.032	1.905	-0.293
H	-2.115	0.51	-0.317
H	-1.078	0.86	-1.707
H	1.413	0.399	-1.638
H	1.532	1.539	-0.31
H	2.19	-0.091	-0.121
H	1.740437	1.059228	1.813
H	0.785604	1.056531	3.127
H	-0.173	-1.421	-1.94
H	-2.814645	-1.07164	2.839
20
input_35
S	-0.227	-1.72	-0.634
O	-1.899816	-1.170832	2.443
O	-2.009949	1.091666	2.419
N	0.747776	1.137526	2.109
C	0	0	0
C	0	0	1.557
C	-1.119	0.859	-0.611
C	1.358	0.483	-0.545
C	-1.393489	0.061683	2.179
H	0.490085	-0.908255	1.931
H	-1.032	1.905	-0.293
H	-2.115	0.51	-0.317
H	-1.078	0.86	-1.707
H	1.413	0.399	-1.638
H	1.532	1.539	-0.31
H	2.19	-0.091	-0.121
H	1.721685	1.089441	1.813
H	0.767045	1.070081	3.127
H	-0.173	-1.421	-1.94
H	-2.795514	-1.120599	2.839
20
input_36
S	-0.227	-1.72	-0.634
O	-1.879093	-1.20381	2.443
O	-2.028695	1.056421	2.419
N	0.727809	1.150403	2.109
C	0	0	0
C	0	0	1.557
C	-1.119	0.859	-0.611
C	1.358	0.483	-0.545
C	-1.394354	0.037353	2.179
H	0.505861	-0.899564	1.931
H	-1.032	1.905	-0.293
H	-2.115	0.51	-0.317
H	-1.078	0.86	-1.707
H	1.413	0.399	-1.638
H	1.532	1.539	-0.31
H	2.19	-0.091	-0.121
H	1.70241	1.119323	1.813
H	0.748253	1.083305	3.127
H	-0.173	-1.421	-1.94
H	-2.775531	-1.169217	2.839
20
input_37
S	-0.227	-1.72	-0.634
O	-1.857797	-1.236422	2.443
O	-2.046823	1.020855	2.419
N	0.707621	1.16293	2.109
C	0	0	0
C	0	0	1.557
C	-1.119	0.859	-0.611
C	1.358	0.483	-0.545
C	-1.394793	0.013013	2.179
H	0.521484	-0.890598	1.931
H	-1.032	1.905	-0.293
H	-2.115	0.51	-0.317
H	-1.078	0.86	-1.707
H	1.413	0.399	-1.638
H	1.532	1.539	-0.31
H	2.19	-0.091	-0.121
H	1.682616	1.148864	1.813
H	0.729233	1.096199	3.127
H	-0.173	-1.421	-1.94
H	-2.754703	-1.217478	2.839
20
input_38
S	-0.227	-1.72	-0.634
O	-1.835936	-1.268656	2.443
O	-2.064328	0.984977	2.419
N	0.687217	1.175102	2.109
C	0	0	0
C	0	0	1.557
C	-1.119	0.859	-0.611
C	1.358	0.483	-0.545
C	-1.394808	-0.011332	2.179
H	0.536947	-0.881361	1.931
H	-1.032	1.905	-0.293
H	-2.115	0.51	-0.317
H	-1.078	0.86	-1.707
H	1.413	0.399	-1.638
H	1.532	1.539	-0.31
H	2.19	-0.091	-0.121
H	1.662309	1.178054	1.813
H	0.70999	1.108759	3.127
H	-0.173	-1.421	-1.94
H	-2.733035	-1.265369	2.839
20
input_39
S	-0.227	-1.72	-0.634
O	-1.813515	-1.300505	2.443
O	-2.081204	0.9488	2.419
N	0.666604	1.186917	2.109
C	0	0	0
C	0	0	1.557
C	-1.119	0.859	-0.611
C	1.358	0.483	-0.545
C	-1.394398	-0.035673	2.179
H	0.552247	-0.871856	1.931
H	-1.032	1.905	-0.293
H	-2.115	0.51	-0.317
H	-1.078	0.86	-1.707
H	1.413	0.399	-1.638
H	1.532	1.539	-0.31
H	2.19	-0.091	-0.121
H	1.641496	1.206886	1.813
H	0.690532	1.120981	3.127
H	-0.173	-1.421	-1.94
H	-2.710535	-1.312874	2.839
20
input_40
S	-0.227	-1.72	-0.634
O	-1.790542	-1.331957	2.443
O	-2.097446	0.912333	2.419
N	0.645788	1.19837	2.109
C	0	0	0
C	0	0	1.557
C	-1.119	0.859	-0.611
C	1.358	0.483	-0.545
C	-1.393563	-0.060003	2.179
H	0.567379	-0.862085	1.931
H	-1.032	1.905	-0.293
H	-2.115	0.51	-0.317
H	-1.078	0.86	-1.707
H	1.413	0.399	-1.638
H	1.532	1.539	-0.31
H	2.19	-0.091	-0.121
H	1.620183	1.235351	1.813
H	0.670863	1.132861	3.127
H	-0.173	-1.421	-1.94
H	-2.687209	-1.35998	2.839
20
input_41
S	-0.227	-1.72	-0.634
O	-1.767023	-1.363003	2.443
O	-2.113049	0.875589	2.419
N	0.624776	1.209458	2.109
C	0	0	0
C	0	0	1.557
C	-1.119	0.859	-0.611
C	1.358	0.483	-0.545
C	-1.392303	-0.084315	2.179
H	0.582338	-0.852052	1.931
H	-1.032	1.905	-0.293
H	-2.115	0.51	-0.317
H	-1.078	0.86	-1.707
H	1.413	0.399	-1.638
H	1.532	1.539	-0.31
H	2.19	-0.091	-0.121
H	1.598376	1.263438	1.813
H	0.650989	1.144397	3.127
H	-0.173	-1.421	-1.94
H	-2.663065	-1.406671	2.839
20
input_42
S	-0.227	-1.72	-0.634
O	-1.742966	-1.393634	2.443
O	-2.128008	0.838578	2.419
N	0.603572	1.220178	2.109
C	0	0	0
C	0	0	1.557
C	-1.119	0.859	-0.611
C	1.358	0.483	-0.545
C	-1.39062	-0.108601	2.179
H	0.59712	-0.841759	1.931
H	-1.032	1.905	-0.293
H	-2.115	0.51	-0.317
H	-1.078	0.86	-1.707
H	1.413	0.399	-1.638
H	1.532	1.539	-0.31
H	2.19	-0.091	-0.121
H	1.576083	1.291142	1.813
H	0.630918	1.155584	3.127
H	-0.173	-1.421	-1.94
H	-2.63811	-1.452934	2.839
20
input_43
S	-0.227	-1.72	-0.634
O	-1.718379	-1.423841	2.443
O	-2.142319	0.801311	2.419
N	0.582185	1.230526	2.109
C	0	0	0
C	0	0	1.557
C	-1.119	0.859	-0.611
C	1.358	0.483	-0.545
C	-1.388513	-0.132854	2.179
H	0.61172	-0.831209	1.931
H	-1.032	1.905	-0.293
H	-2.115	0.51	-0.317
H	-1.078	0.86	-1.707
H	1.413	0.399	-1.638
H	1.532	1.539	-0.31
H	2.19	-0.091	-0.121
H	1.553309	1.318451	1.813
H	0.610654	1.166419	3.127
H	-0.173	-1.421	-1.94
H	-2.612351	-1.498754	2.839
20
input_44
S	-0.227	-1.72	-0.634
O	-1.693268	-1.453614	2.443
O	-2.155978	0.763801	2.419
N	0.560621	1.240499	2.109
C	0	0	0
C	0	0	1.557
C	-1.119	0.859	-0.611
C	1.358	0.483	-0.545
C	-1.385982	-0.157067	2.179
H	0.626133	-0.820407	1.931
H	-1.032	1.905	-0.293
H	-2.115	0.51	-0.317
H	-1.078	0.86	-1.707
H	1.413	0.399	-1.638
H	1.532	1.539	-0.31
H	2.19	-0.091	-0.121
H	1.530062	1.34536	1.813
H	0.590204	1.176899	3.127
H	-0.173	-1.421	-1.94
H	-2.585796	-1.544117	2.839
20
input_45
S	-0.227	-1.72	-0.634
O	-1.667641	-1.482944	2.443
O	-2.168979	0.726057	2.419
N	0.538886	1.250094	2.109
C	0	0	0
C	0	0	1.557
C	-1.119	0.859	-0.611
C	1.358	0.483	-0.545
C	-1.38303	-0.181231	2.179
H	0.640356	-0.809354	1.931
H	-1.032	1.905	-0.293
H	-2.115	0.51	-0.317
H	-1.078	0.86	-1.707
H	1.413	0.399	-1.638
H	1.532	1.539	-0.31
H	2.19	-0.091	-0.121
H	1.50635	1.371858	1.813
H	0.569575	1.18702	3.127
H	-0.173	-1.421	-1.94
H	-2.558454	-1.58901	2.839
20
input_46
S	-0.227	-1.72	-0.634
O	-1.641506	-1.511823	2.443
O	-2.18132	0.688093	2.419
N	0.516987	1.259309	2.109
C	0	0	0
C	0	0	1.557
C	-1.119	0.859	-0.611
C	1.358	0.483	-0.545
C	-1.379657	-0.205341	2.179
H	0.654384	-0.798055	1.931
H	-1.032	1.905	-0.293
H	-2.115	0.51	-0.317
H	-1.078	0.86	-1.707
H	1.413	0.399	-1.638
H	1.532	1.539	-0.31
H	2.19	-0.091	-0.121
H	1.482178	1.397938	1.813
H	0.548771	1.19678	3.127
H	-0.173	-1.421	-1.94
H	-2.530332	-1.63342	2.839
20
input_47
S	-0.227	-1.72	-0.634
O	-1.614871	-1.540241	2.443
O	-2.192997	0.649919	2.419
N	0.49493	1.268139	2.109
C	0	0	0
C	0	0	1.557
C	-1.119	0.859	-0.611
C	1.358	0.483	-0.545
C	-1.375863	-0.229388	2.179
H	0.668212	-0.786513	1.931
H	-1.032	1.905	-0.293
H	-2.115	0.51	-0.317
H	-1.078	0.86	-1.707
H	1.413	0.399	-1.638
H	1.532	1.539	-0.31
H	2.19	-0.091	-0.121
H	1.457555	1.423593	1.813
H	0.527801	1.206175	3.127
H	-0.173	-1.421	-1.94
H	-2.50144	-1.677331	2.839
20
input_48
S	-0.227	-1.72	-0.634
O	-1.587744	-1.56819	2.443
O	-2.204006	0.611547	2.419
N	0.472723	1.276584	2.109
C	0	0	0
C	0	0	1.557
C	-1.119	0.859	-0.611
C	1.358	0.483	-0.545
C	-1.37165	-0.253365	2.179
H	0.681837	-0.774732	1.931
H	-1.032	1.905	-0.293
H	-2.115	0.51	-0.317
H	-1.078	0.86	-1.707
H	1.413	0.399	-1.638
H	1.532	1.539	-0.31
H	2.19	-0.091	-0.121
H	1.432488	1.448814	1.813
H	0.50667	1.215203	3.127
H	-0.173	-1.421	-1.94
H	-2.471785	-1.720732	2.839
20
input_49
S	-0.227	-1.72	-0.634
O	-1.560133	-1.595661	2.443
O	-2.214343	0.572988	2.419
N	0.450371	1.28464	2.109
C	0	0	0
C	0	0	1.557
C	-1.119	0.859	-0.611
C	1.358	0.483	-0.545
C	-1.367019	-0.277265	2.179
H	0.695254	-0.762714	1.931
H	-1.032	1.905	-0.293
H	-2.115	0.51	-0.317
H	-1.078	0.86	-1.707
H	1.413	0.399	-1.638
H	1.532	1.539	-0.31
H	2.19	-0.091	-0.121
H	1.406984	1.473594	1.813
H	0.485385	1.22386	3.127
H	-0.173	-1.421	-1.94
H	-2.441378	-1.763608	2.839
20
input_50
S	-0.227	-1.72	-0.634
O	-1.532048	-1.622646	2.443
O	-2.224006	0.534255	2.419
N	0.427883	1.292304	2.109
C	0	0	0
C	0	0	1.557
C	-1.119	0.859	-0.611
C	1.358	0.483	-0.545
C	-1.361972	-0.301081	2.179
H	0.708459	-0.750464	1.931
H	-1.032	1.905	-0.293
H	-2.115	0.51	-0.317
H	-1.078	0.86	-1.707
H	1.413	0.399	-1.638
H	1.532	1.539	-0.31
H	2.19	-0.091	-0.121
H	1.381052	1.497925	1.813
H	0.463951	1.232145	3.127
H	-0.173	-1.421	-1.94
H	-2.410227	-1.805948	2.839
20
input_51
S	-0.227	-1.72	-0.634
O	-1.503495	-1.649137	2.443
O	-2.232991	0.49536	2.419
N	0.405264	1.299575	2.109
C	0	0	0
C	0	0	1.557
C	-1.119	0.859	-0.611
C	1.358	0.483	-0.545
C	-1.35651	-0.324805	2.179
H	0.721449	-0.737985	1.931
H	-1.032	1.905	-0.293
H	-2.115	0.51	-0.317
H	-1.078	0.86	-1.707
H	1.413	0.399	-1.638
H	1.532	1.539	-0.31
H	2.19	-0.091	-0.121
H	1.354699	1.521799	1.813
H	0.442377	1.240054	3.127
H	-0.173	-1.421	-1.94
H	-2.378341	-1.847737	2.839
20
input_52
S	-0.227	-1.72	-0.634
O	-1.474485	-1.675125	2.443
O	-2.241296	0.456313	2.419
N	0.382521	1.30645	2.109
C	0	0	0
C	0	0	1.557
C	-1.119	0.859	-0.611
C	1.358	0.483	-0.545
C	-1.350635	-0.34843	2.179
H	0.734218	-0.725282	1.931
H	-1.032	1.905	-0.293
H	-2.115	0.51	-0.317
H	-1.078	0.86	-1.707
H	1.413	0.399	-1.638
H	1.532	1.539	-0.31
H	2.19	-0.091	-0.121
H	1.327934	1.54521	1.813
H	0.420668	1.247586	3.127
H	-0.173	-1.421	-1.94
H	-2.345732	-1.888963	2.839
20
input_53
S	-0.227	-1.72	-0.634
O	-1.445025	-1.700603	2.443
O	-2.248919	0.417128	2.419
N	0.359662	1.312927	2.109
C	0	0	0
C	0	0	1.557
C	-1.119	0.859	-0.611
C	1.358	0.483	-0.545
C	-1.344348	-0.371948	2.179
H	0.746764	-0.712358	1.931
H	-1.032	1.905	-0.293
H	-2.115	0.51	-0.317
H	-1.078	0.86	-1.707
H	1.413	0.399	-1.638
H	1.532	1.539	-0.31
H	2.19	-0.091	-0.121
H	1.300764	1.56815	1.813
H	0.39883	1.254738	3.127
H	-0.173	-1.421	-1.94
H	-2.312408	-1.929614	2.839
20
input_54
S	-0.227	-1.72	-0.634
O	-1.415126	-1.725563	2.443
O	-2.255856	0.377815	2.419
N	0.336694	1.319004	2.109
C	0	0	0
C	0	0	1.557
C	-1.119	0.859	-0.611
C	1.358	0.483	-0.545
C	-1.337652	-0.395354	2.179
H	0.759083	-0.699216	1.931
H	-1.032	1.905	-0.293
H	-2.115	0.51	-0.317
H	-1.078	0.86	-1.707
H	1.413	0.399	-1.638
H	1.532	1.539	-0.31
H	2.19	-0.091	-0.121
H	1.273198	1.590613	1.813
H	0.376871	1.261507	3.127
H	-0.173	-1.421	-1.94
H	-2.278379	-1.969677	2.839
20
input_55
S	-0.227	-1.72	-0.634
O	-1.384795	-1.749998	2.443
O	-2.262106	0.338387	2.419
N	0.313623	1.324679	2.109
C	0	0	0
C	0	0	1.557
C	-1.119	0.859	-0.611
C	1.358	0.483	-0.545
C	-1.330548	-0.418639	2.179
H	0.77117	-0.685862	1.931
H	-1.032	1.905	-0.293
H	-2.115	0.51	-0.317
H	-1.078	0.86	-1.707
H	1.413	0.399	-1.638
H	1.532	1.539	-0.31
H	2.19	-0.091	-0.121
H	1.245244	1.612591	1.813
H	0.354798	1.267892	3.127
H	-0.173	-1.421	-1.94
H	-2.243656	-2.009141	2.839
20
input_56
S	-0.227	-1.72	-0.634
O	-1.354042	-1.773899	2.443
O	-2.267667	0.298857	2.419
N	0.290456	1.329951	2.109
C	0	0	0
C	0	0	1.557
C	-1.119	0.859	-0.611
C	1.358	0.483	-0.545
C	-1.323039	-0.441796	2.179
H	0.783023	-0.672299	1.931
H	-1.032	1.905	-0.293
H	-2.115	0.51	-0.317
H	-1.078	0.86	-1.707
H	1.413	0.399	-1.638
H	1.532	1.539	-0.31
H	2.19	-0.091	-0.121
H	1.216911	1.634078	1.813
H	0.332616	1.273891	3.127
H	-0.173	-1.421	-1.94
H	-2.20825	-2.047992	2.839
20
input_57
S	-0.227	-1.72	-0.634
O	-1.322877	-1.79726	2.443
O	-2.272538	0.259235	2.419
N	0.267201	1.334817	2.109
C	0	0	0
C	0	0	1.557
C	-1.119	0.859	-0.611
C	1.358	0.483	-0.545
C	-1.315127	-0.464819	2.179
H	0.794637	-0.658531	1.931
H	-1.032	1.905	-0.293
H	-2.115	0.51	-0.317
H	-1.078	0.86	-1.707
H	1.413	0.399	-1.638
H	1.532	1.539	-0.31
H	2.19	-0.091	-0.121
H	1.188207	1.655067	1.813
H	0.310333	1.279502	3.127
H	-0.173	-1.421	-1.94
H	-2.172172	-2.086219	2.839
20
input_58
S	-0.227	-1.72	-0.634
O	-1.291309	-1.820074	2.443
O	-2.276716	0.219534	2.419
N	0.243864	1.339277	2.109
C	0	0	0
C	0	0	1.557
C	-1.119	0.859	-0.611
C	1.358	0.483	-0.545
C	-1.306815	-0.487701	2.179
H	0.806009	-0.644562	1.931
H	-1.032	1.905	-0.293
H	-2.115	0.51	-0.317
H	-1.078	0.86	-1.707
H	1.413	0.399	-1.638
H	1.532	1.539	-0.31
H	2.19	-0.091	-0.121
H	1.159141	1.675552	1.813
H	0.287955	1.284723	3.127
H	-0.173	-1.421	-1.94
H	-2.135431	-2.123811	2.839
20
input_59
S	-0.227	-1.72	-0.634
O	-1.259348	-1.842333	2.443
O	-2.280201	0.179767	2.419
N	0.220454	1.343329	2.109
C	0	0	0
C	0	0	1.557
C	-1.119	0.859	-0.611
C	1.358	0.483	-0.545
C	-1.298104	-0.510433	2.179
H	0.817135	-0.630397	1.931
H	-1.032	1.905	-0.293
H	-2.115	0.51	-0.317
H	-1.078	0.86	-1.707
H	1.413	0.399	-1.638
H	1.532	1.539	-0.31
H	2.19	-0.091	-0.121
H	1.129722	1.695527	1.813
H	0.26549	1.289553	3.127
H	-0.173	-1.421	-1.94
H	-2.09804	-2.160756	2.839
20
input_60
S	-0.227	-1.72	-0.634
O	-1.227003	-1.864031	2.443
O	-2.282991	0.139944	2.419
N	0.196976	1.346972	2.109
C	0	0	0
C	0	0	1.557
C	-1.119	0.859	-0.611
C	1.358	0.483	-0.545
C	-1.288998	-0.533011	2.179
H	0.828013	-0.61604	1.931
H	-1.032	1.905	-0.293
H	-2.115	0.51	-0.317
H	-1.078	0.86	-1.707
H	1.413	0.399	-1.638
H	1.532	1.539	-0.31
H	2.19	-0.091	-0.121
H	1.099959	1.714985	1.813
H	0.242943	1.29399	3.127
H	-0.173	-1.421	-1.94
H	-2.06001	-2.197043	2.839
